LTspice 24.1.7 for Windows
Circuit: C:\Users\marco\OneDrive\Escritorio\UTN\MATERIAS\TC1\Simulaciones\Oscilador\Oscilador-RC-AmpOp.net
Start Time: Thu Sep 18 17:34:45 2025
solver = Normal
Maximum thread count: 16
tnom = 27
temp = 27
method = trap
Direct Newton iteration for .op point succeeded.
.step r=1000
.step r=2000
.step r=3000
.step r=4000
.step r=5000
.step r=6000
.step r=7000
.step r=8000
.step r=9000
.step r=10000
.step r=11000
.step r=12000
.step r=13000
.step r=14000
Total elapsed time: 15.107 seconds.

Files loaded:
C:\Users\marco\OneDrive\Escritorio\UTN\MATERIAS\TC1\Simulaciones\Oscilador\Oscilador-RC-AmpOp.net
C:\Users\marco\AppData\Local\LTspice\lib\sub\LTC.lib

