LTspice 24.1.9 for Windows
Circuit: C:\Users\lauta\OneDrive\Documentos\LTspice\Projects\TC1-Generador-Se-ales\Simulaciones\Oscilador\Puente Wien.net
Start Time: Sat Oct  4 00:01:55 2025
solver = Normal
Maximum thread count: 12
tnom = 27
temp = 27
method = trap
Direct Newton iteration for .op point succeeded.
Total elapsed time: 2.181 seconds.

Files loaded:
C:\Users\lauta\OneDrive\Documentos\LTspice\Projects\TC1-Generador-Se-ales\Simulaciones\Oscilador\Puente Wien.net
C:\Users\lauta\AppData\Local\LTspice\lib\cmp\standard.dio
C:\Users\lauta\AppData\Local\LTspice\lib\cmp\standard.jft
C:\Users\lauta\AppData\Local\LTspice\lib\sub\LTC.lib

