LTspice 24.1.9 for Windows
Circuit: C:\Users\lauta\OneDrive\Documentos\LTspice\Projects\TC1-Generador-Se-ales\Simulaciones\Oscilador\Puente Wien.net
Start Time: Tue Oct  7 21:51:52 2025
solver = Normal
Maximum thread count: 12
tnom = 27
temp = 27
method = trap
Direct Newton iteration for .op point succeeded.
.step r=1000
.step r=10900
.step r=20800
.step r=30700
.step r=40600
.step r=50500
.step r=60400
.step r=70300
.step r=80200
.step r=90100
.step r=100000
Total elapsed time: 14.230 seconds.

Files loaded:
C:\Users\lauta\OneDrive\Documentos\LTspice\Projects\TC1-Generador-Se-ales\Simulaciones\Oscilador\Puente Wien.net
C:\Users\lauta\AppData\Local\LTspice\lib\sub\LTC.lib
C:\Users\lauta\AppData\Local\LTspice\lib\sub\RH1028.sub

